%chk=J:\che513\mediumProject\HCO2opt_freq.chk
# opt freq hf/6-31g(d) geom=connectivity

Title Card Required

0 1
 O                 -3.93245105   -0.69337701   -0.51221650
 C                 -3.72565029   -1.65951698    0.26712782
 H                 -3.60745005   -2.64781396   -0.12555241
 H                 -3.66801108   -1.49271540    1.32247372

 1 2 2.0
 2 3 1.0 4 1.0
 3
 4

