%chk=J:\che513\mediumProject\HNH exam.chk
# freq uhf/6-311g(d) geom=connectivity

Title Card Required

0 2
 H                  0.00000000   -0.86602500   -0.38888900
 H                  0.00000000    0.86602500   -0.38888900
 N                  0.00000000    0.00000000    0.11111100

 1 3 1.0
 2 3 1.0
 3

